@<TRIPOS>MOLECULE
TMP
   11   10    1    0    0
SMALL
NO_CHARGES
****
Energy = 0

@<TRIPOS>ATOM
      1  C1         0.0000    0.0000    0.0000    C    1  TMP        0.000000
      2  C2        -1.5000    0.0000    0.0000    C    1  TMP        0.000000
      3  O1        -2.2000    1.2124    0.0000    O    1  TMP        0.000000
      4  C3         0.7000   -1.2124   -0.0000    C    1  TMP        0.000000
      5  O2         0.7710    1.1685    0.0000    O    1  TMP        0.000000
      6  H1        -1.8131    1.7905    0.7126    H    1  TMP        0.000000
      7  H2        -1.9666    1.7544   -0.8134    H    1  TMP        0.000000
      8  H3        -1.8198   -0.4847   -0.8141    H    1  TMP        0.000000
      9  H4        -1.8198   -0.4847    0.8141    H    1  TMP        0.000000
     10  H5        -3.1971    1.2516    0.0959    H    1  TMP        0.000000
     11  H6         1.6816   -1.0216   -0.0000    H    1  TMP        0.000000
@<TRIPOS>BOND
    1     1     2  1
    2     1     3  1
    3     1     5  2
    4     2     4  1
    5     2     8  1
    6     2     9  1
    7     4     6  1
    8     4     7  1
    9     4    10  1
   10     3    11  1

@<TRIPOS>SUBSTRUCTURE
1 ****        1 TEMP                        0 ****  **** 0 ROOT

#generated by VMD
